MODEL 1
REMARK VINA RESULT:    -2.308      0.000      0.000
REMARK INTER + INTRA:          -5.832
REMARK INTER:                  -3.455
REMARK INTRA:                  -2.377
REMARK UNBOUND:                -2.377
REMARK SMILES CCCCc1nc(Cl)c(CO)n1Cc1ccc(-c2ccccc2-c2nn[nH]n2)cc1
REMARK SMILES IDX 5 1 6 2 7 3 8 4 9 5 12 6 4 7 3 8 2 9 1 10 13 11 14 12 15 13
REMARK SMILES IDX 30 14 16 15 29 16 17 17 18 18 19 19 23 20 20 21 22 22 21 23
REMARK SMILES IDX 24 24 28 25 25 26 27 27 26 28 10 30 11 31
REMARK H PARENT 27 29 11 32
REMARK Flexibility Score: inf
ROOT
ATOM      1  C   UNL A   1       4.435  -0.850   2.771  1.00  0.00     0.111 A 
ATOM      2  N   UNL A   1       4.778  -1.958   2.076  1.00  0.00    -0.221 NA
ATOM      3  C   UNL A   1       4.346  -2.989   2.819  1.00  0.00     0.152 A 
ATOM      4  Cl  UNL A   1       4.553  -4.669   2.357  1.00  0.00    -0.060 Cl
ATOM      5  C   UNL A   1       3.751  -2.509   3.964  1.00  0.00     0.083 A 
ATOM      6  N   UNL A   1       3.792  -1.156   3.940  1.00  0.00    -0.324 N 
ENDROOT
BRANCH   1   7
ATOM      7  C   UNL A   1       4.798   0.533   2.281  1.00  0.00     0.075 C 
BRANCH   7   8
ATOM      8  C   UNL A   1       4.311   0.809   0.851  1.00  0.00     0.008 C 
BRANCH   8   9
ATOM      9  C   UNL A   1       3.021   1.639   0.865  1.00  0.00    -0.003 C 
ATOM     10  C   UNL A   1       1.790   0.744   0.768  1.00  0.00     0.004 C 
ENDBRANCH   8   9
ENDBRANCH   7   8
ENDBRANCH   1   7
BRANCH   6  11
ATOM     11  C   UNL A   1       3.264  -0.316   5.039  1.00  0.00     0.159 C 
BRANCH  11  12
ATOM     12  C   UNL A   1       1.996   0.440   4.739  1.00  0.00    -0.028 A 
ATOM     13  C   UNL A   1       2.056   1.769   4.298  1.00  0.00     0.006 A 
ATOM     14  C   UNL A   1       0.749  -0.189   4.847  1.00  0.00     0.006 A 
ATOM     15  C   UNL A   1       0.883   2.471   4.008  1.00  0.00     0.009 A 
ATOM     16  C   UNL A   1      -0.423   0.514   4.563  1.00  0.00     0.009 A 
ATOM     17  C   UNL A   1      -0.381   1.863   4.160  1.00  0.00    -0.018 A 
BRANCH  17  18
ATOM     18  C   UNL A   1      -1.634   2.617   3.832  1.00  0.00    -0.007 A 
ATOM     19  C   UNL A   1      -2.074   3.571   4.779  1.00  0.00     0.009 A 
ATOM     20  C   UNL A   1      -2.387   2.465   2.618  1.00  0.00     0.031 A 
ATOM     21  C   UNL A   1      -3.186   4.373   4.540  1.00  0.00     0.001 A 
ATOM     22  C   UNL A   1      -3.503   3.304   2.405  1.00  0.00     0.013 A 
ATOM     23  C   UNL A   1      -3.893   4.246   3.353  1.00  0.00     0.001 A 
BRANCH  20  24
ATOM     24  C   UNL A   1      -2.135   1.423   1.578  1.00  0.00     0.205 A 
ATOM     25  N   UNL A   1      -1.618   1.685   0.359  1.00  0.00    -0.134 NA
ATOM     26  N   UNL A   1      -2.468   0.119   1.665  1.00  0.00    -0.108 NA
ATOM     27  N   UNL A   1      -1.618   0.521  -0.268  1.00  0.00    -0.177 N 
ATOM     28  N   UNL A   1      -2.126  -0.420   0.507  1.00  0.00    -0.050 NA
ATOM     29  H   UNL A   1      -1.273   0.370  -1.241  1.00  0.00     0.216 HD
ENDBRANCH  20  24
ENDBRANCH  17  18
ENDBRANCH  11  12
ENDBRANCH   6  11
BRANCH   5  30
ATOM     30  C   UNL A   1       3.151  -3.349   5.062  1.00  0.00     0.213 C 
BRANCH  30  31
ATOM     31  O   UNL A   1       1.794  -3.587   4.813  1.00  0.00    -0.390 OA
ATOM     32  H   UNL A   1       1.428  -2.752   4.418  1.00  0.00     0.211 HD
ENDBRANCH  30  31
ENDBRANCH   5  30
TORSDOF 9
ENDMDL
MODEL 2
REMARK VINA RESULT:    -2.259      4.272      7.733
REMARK INTER + INTRA:          -5.759
REMARK INTER:                  -3.541
REMARK INTRA:                  -2.218
REMARK UNBOUND:                -2.377
REMARK SMILES CCCCc1nc(Cl)c(CO)n1Cc1ccc(-c2ccccc2-c2nn[nH]n2)cc1
REMARK SMILES IDX 5 1 6 2 7 3 8 4 9 5 12 6 4 7 3 8 2 9 1 10 13 11 14 12 15 13
REMARK SMILES IDX 30 14 16 15 29 16 17 17 18 18 19 19 23 20 20 21 22 22 21 23
REMARK SMILES IDX 24 24 28 25 25 26 27 27 26 28 10 30 11 31
REMARK H PARENT 27 29 11 32
REMARK Flexibility Score: inf
ROOT
ATOM      1  C   UNL A   1      -1.491   2.403   3.934  1.00  0.00     0.111 A 
ATOM      2  N   UNL A   1      -2.098   3.527   4.379  1.00  0.00    -0.221 NA
ATOM      3  C   UNL A   1      -3.138   3.717   3.553  1.00  0.00     0.152 A 
ATOM      4  Cl  UNL A   1      -4.255   5.062   3.698  1.00  0.00    -0.060 Cl
ATOM      5  C   UNL A   1      -3.158   2.719   2.605  1.00  0.00     0.083 A 
ATOM      6  N   UNL A   1      -2.126   1.875   2.843  1.00  0.00    -0.324 N 
ENDROOT
BRANCH   1   7
ATOM      7  C   UNL A   1      -0.230   1.877   4.581  1.00  0.00     0.075 C 
BRANCH   7   8
ATOM      8  C   UNL A   1       1.049   2.432   3.937  1.00  0.00     0.008 C 
BRANCH   8   9
ATOM      9  C   UNL A   1       2.230   1.481   4.164  1.00  0.00    -0.003 C 
ATOM     10  C   UNL A   1       3.559   2.179   3.894  1.00  0.00     0.004 C 
ENDBRANCH   8   9
ENDBRANCH   7   8
ENDBRANCH   1   7
BRANCH   6  11
ATOM     11  C   UNL A   1      -1.836   0.701   1.988  1.00  0.00     0.159 C 
BRANCH  11  12
ATOM     12  C   UNL A   1      -0.669   0.846   1.046  1.00  0.00    -0.028 A 
ATOM     13  C   UNL A   1       0.483   0.069   1.226  1.00  0.00     0.006 A 
ATOM     14  C   UNL A   1      -0.741   1.720  -0.047  1.00  0.00     0.006 A 
ATOM     15  C   UNL A   1       1.564   0.192   0.349  1.00  0.00     0.009 A 
ATOM     16  C   UNL A   1       0.341   1.847  -0.921  1.00  0.00     0.009 A 
ATOM     17  C   UNL A   1       1.522   1.103  -0.727  1.00  0.00    -0.018 A 
BRANCH  17  18
ATOM     18  C   UNL A   1       2.679   1.219  -1.673  1.00  0.00    -0.007 A 
ATOM     19  C   UNL A   1       2.797   0.220  -2.666  1.00  0.00     0.009 A 
ATOM     20  C   UNL A   1       3.640   2.287  -1.663  1.00  0.00     0.031 A 
ATOM     21  C   UNL A   1       3.794   0.273  -3.636  1.00  0.00     0.001 A 
ATOM     22  C   UNL A   1       4.630   2.315  -2.669  1.00  0.00     0.013 A 
ATOM     23  C   UNL A   1       4.702   1.322  -3.643  1.00  0.00     0.001 A 
BRANCH  20  24
ATOM     24  C   UNL A   1       3.734   3.347  -0.614  1.00  0.00     0.205 A 
ATOM     25  N   UNL A   1       4.575   3.292   0.440  1.00  0.00    -0.134 NA
ATOM     26  N   UNL A   1       2.945   4.437  -0.517  1.00  0.00    -0.108 NA
ATOM     27  N   UNL A   1       4.301   4.373   1.149  1.00  0.00    -0.177 N 
ATOM     28  N   UNL A   1       3.327   5.062   0.584  1.00  0.00    -0.050 NA
ATOM     29  H   UNL A   1       4.783   4.640   2.036  1.00  0.00     0.216 HD
ENDBRANCH  20  24
ENDBRANCH  17  18
ENDBRANCH  11  12
ENDBRANCH   6  11
BRANCH   5  30
ATOM     30  C   UNL A   1      -4.163   2.585   1.490  1.00  0.00     0.213 C 
BRANCH  30  31
ATOM     31  O   UNL A   1      -3.876   3.488   0.459  1.00  0.00    -0.390 OA
ATOM     32  H   UNL A   1      -4.377   4.321   0.665  1.00  0.00     0.211 HD
ENDBRANCH  30  31
ENDBRANCH   5  30
TORSDOF 9
ENDMDL
MODEL 3
REMARK VINA RESULT:    -2.256      3.857      5.175
REMARK INTER + INTRA:          -5.755
REMARK INTER:                  -3.310
REMARK INTRA:                  -2.445
REMARK UNBOUND:                -2.377
REMARK SMILES CCCCc1nc(Cl)c(CO)n1Cc1ccc(-c2ccccc2-c2nn[nH]n2)cc1
REMARK SMILES IDX 5 1 6 2 7 3 8 4 9 5 12 6 4 7 3 8 2 9 1 10 13 11 14 12 15 13
REMARK SMILES IDX 30 14 16 15 29 16 17 17 18 18 19 19 23 20 20 21 22 22 21 23
REMARK SMILES IDX 24 24 28 25 25 26 27 27 26 28 10 30 11 31
REMARK H PARENT 27 29 11 32
REMARK Flexibility Score: inf
ROOT
ATOM      1  C   UNL A   1       4.416   1.605  -0.035  1.00  0.00     0.111 A 
ATOM      2  N   UNL A   1       4.654   1.564  -1.366  1.00  0.00    -0.221 NA
ATOM      3  C   UNL A   1       4.292   2.771  -1.827  1.00  0.00     0.152 A 
ATOM      4  Cl  UNL A   1       4.399   3.234  -3.515  1.00  0.00    -0.060 Cl
ATOM      5  C   UNL A   1       3.828   3.539  -0.782  1.00  0.00     0.083 A 
ATOM      6  N   UNL A   1       3.911   2.815   0.359  1.00  0.00    -0.324 N 
ENDROOT
BRANCH   1   7
ATOM      7  C   UNL A   1       4.652   0.400   0.847  1.00  0.00     0.075 C 
BRANCH   7   8
ATOM      8  C   UNL A   1       3.791  -0.809   0.453  1.00  0.00     0.008 C 
BRANCH   8   9
ATOM      9  C   UNL A   1       2.320  -0.573   0.817  1.00  0.00    -0.003 C 
ATOM     10  C   UNL A   1       1.821  -1.625   1.801  1.00  0.00     0.004 C 
ENDBRANCH   8   9
ENDBRANCH   7   8
ENDBRANCH   1   7
BRANCH   6  11
ATOM     11  C   UNL A   1       3.464   3.331   1.672  1.00  0.00     0.159 C 
BRANCH  11  12
ATOM     12  C   UNL A   1       2.226   2.691   2.244  1.00  0.00    -0.028 A 
ATOM     13  C   UNL A   1       1.030   2.693   1.513  1.00  0.00     0.006 A 
ATOM     14  C   UNL A   1       2.268   2.044   3.486  1.00  0.00     0.006 A 
ATOM     15  C   UNL A   1      -0.118   2.092   2.035  1.00  0.00     0.009 A 
ATOM     16  C   UNL A   1       1.118   1.448   4.010  1.00  0.00     0.009 A 
ATOM     17  C   UNL A   1      -0.101   1.479   3.306  1.00  0.00    -0.018 A 
BRANCH  17  18
ATOM     18  C   UNL A   1      -1.333   0.822   3.853  1.00  0.00    -0.007 A 
ATOM     19  C   UNL A   1      -1.309  -0.586   3.969  1.00  0.00     0.009 A 
ATOM     20  C   UNL A   1      -2.505   1.524   4.297  1.00  0.00     0.031 A 
ATOM     21  C   UNL A   1      -2.373  -1.287   4.529  1.00  0.00     0.001 A 
ATOM     22  C   UNL A   1      -3.560   0.781   4.871  1.00  0.00     0.013 A 
ATOM     23  C   UNL A   1      -3.492  -0.605   4.987  1.00  0.00     0.001 A 
BRANCH  20  24
ATOM     24  C   UNL A   1      -2.743   2.989   4.131  1.00  0.00     0.205 A 
ATOM     25  N   UNL A   1      -2.425   3.915   5.060  1.00  0.00    -0.134 NA
ATOM     26  N   UNL A   1      -3.381   3.576   3.097  1.00  0.00    -0.108 NA
ATOM     27  N   UNL A   1      -2.852   5.061   4.559  1.00  0.00    -0.177 N 
ATOM     28  N   UNL A   1      -3.425   4.866   3.385  1.00  0.00    -0.050 NA
ATOM     29  H   UNL A   1      -2.755   5.988   5.028  1.00  0.00     0.216 HD
ENDBRANCH  20  24
ENDBRANCH  17  18
ENDBRANCH  11  12
ENDBRANCH   6  11
BRANCH   5  30
ATOM     30  C   UNL A   1       3.314   4.952  -0.889  1.00  0.00     0.213 C 
BRANCH  30  31
ATOM     31  O   UNL A   1       1.926   4.957  -1.075  1.00  0.00    -0.390 OA
ATOM     32  H   UNL A   1       1.519   5.008  -0.170  1.00  0.00     0.211 HD
ENDBRANCH  30  31
ENDBRANCH   5  30
TORSDOF 9
ENDMDL
MODEL 4
REMARK VINA RESULT:    -2.219      3.896      7.019
REMARK INTER + INTRA:          -5.699
REMARK INTER:                  -3.157
REMARK INTRA:                  -2.542
REMARK UNBOUND:                -2.377
REMARK SMILES CCCCc1nc(Cl)c(CO)n1Cc1ccc(-c2ccccc2-c2nn[nH]n2)cc1
REMARK SMILES IDX 5 1 6 2 7 3 8 4 9 5 12 6 4 7 3 8 2 9 1 10 13 11 14 12 15 13
REMARK SMILES IDX 30 14 16 15 29 16 17 17 18 18 19 19 23 20 20 21 22 22 21 23
REMARK SMILES IDX 24 24 28 25 25 26 27 27 26 28 10 30 11 31
REMARK H PARENT 27 29 11 32
REMARK Flexibility Score: inf
ROOT
ATOM      1  C   UNL A   1      -1.166   1.430   4.680  1.00  0.00     0.111 A 
ATOM      2  N   UNL A   1      -2.133   2.294   5.063  1.00  0.00    -0.221 NA
ATOM      3  C   UNL A   1      -3.271   1.800   4.554  1.00  0.00     0.152 A 
ATOM      4  Cl  UNL A   1      -4.837   2.564   4.761  1.00  0.00    -0.060 Cl
ATOM      5  C   UNL A   1      -2.996   0.644   3.858  1.00  0.00     0.083 A 
ATOM      6  N   UNL A   1      -1.668   0.394   3.940  1.00  0.00    -0.324 N 
ENDROOT
BRANCH   1   7
ATOM      7  C   UNL A   1       0.287   1.668   5.020  1.00  0.00     0.075 C 
BRANCH   7   8
ATOM      8  C   UNL A   1       1.035   2.455   3.934  1.00  0.00     0.008 C 
BRANCH   8   9
ATOM      9  C   UNL A   1       2.524   2.089   3.923  1.00  0.00    -0.003 C 
ATOM     10  C   UNL A   1       2.839   1.031   4.975  1.00  0.00     0.004 C 
ENDBRANCH   8   9
ENDBRANCH   7   8
ENDBRANCH   1   7
BRANCH   6  11
ATOM     11  C   UNL A   1      -1.026  -0.762   3.274  1.00  0.00     0.159 C 
BRANCH  11  12
ATOM     12  C   UNL A   1      -0.086  -0.431   2.144  1.00  0.00    -0.028 A 
ATOM     13  C   UNL A   1      -0.521   0.366   1.076  1.00  0.00     0.006 A 
ATOM     14  C   UNL A   1       1.243  -0.873   2.171  1.00  0.00     0.006 A 
ATOM     15  C   UNL A   1       0.350   0.684   0.031  1.00  0.00     0.009 A 
ATOM     16  C   UNL A   1       2.112  -0.560   1.123  1.00  0.00     0.009 A 
ATOM     17  C   UNL A   1       1.677   0.205   0.023  1.00  0.00    -0.018 A 
BRANCH  17  18
ATOM     18  C   UNL A   1       2.611   0.562  -1.094  1.00  0.00    -0.007 A 
ATOM     19  C   UNL A   1       2.796  -0.405  -2.109  1.00  0.00     0.009 A 
ATOM     20  C   UNL A   1       3.291   1.821  -1.220  1.00  0.00     0.031 A 
ATOM     21  C   UNL A   1       3.586  -0.145  -3.225  1.00  0.00     0.001 A 
ATOM     22  C   UNL A   1       4.076   2.053  -2.371  1.00  0.00     0.013 A 
ATOM     23  C   UNL A   1       4.217   1.083  -3.359  1.00  0.00     0.001 A 
BRANCH  20  24
ATOM     24  C   UNL A   1       3.305   2.896  -0.183  1.00  0.00     0.205 A 
ATOM     25  N   UNL A   1       2.282   3.750   0.032  1.00  0.00    -0.134 NA
ATOM     26  N   UNL A   1       4.351   3.225   0.604  1.00  0.00    -0.108 NA
ATOM     27  N   UNL A   1       2.716   4.571   0.973  1.00  0.00    -0.177 N 
ATOM     28  N   UNL A   1       3.953   4.263   1.319  1.00  0.00    -0.050 NA
ATOM     29  H   UNL A   1       2.161   5.356   1.379  1.00  0.00     0.216 HD
ENDBRANCH  20  24
ENDBRANCH  17  18
ENDBRANCH  11  12
ENDBRANCH   6  11
BRANCH   5  30
ATOM     30  C   UNL A   1      -4.006  -0.204   3.127  1.00  0.00     0.213 C 
BRANCH  30  31
ATOM     31  O   UNL A   1      -4.112   0.200   1.790  1.00  0.00    -0.390 OA
ATOM     32  H   UNL A   1      -4.163  -0.630   1.247  1.00  0.00     0.211 HD
ENDBRANCH  30  31
ENDBRANCH   5  30
TORSDOF 9
ENDMDL
MODEL 5
REMARK VINA RESULT:    -2.166      3.160      4.921
REMARK INTER + INTRA:          -5.619
REMARK INTER:                  -3.409
REMARK INTRA:                  -2.210
REMARK UNBOUND:                -2.377
REMARK SMILES CCCCc1nc(Cl)c(CO)n1Cc1ccc(-c2ccccc2-c2nn[nH]n2)cc1
REMARK SMILES IDX 5 1 6 2 7 3 8 4 9 5 12 6 4 7 3 8 2 9 1 10 13 11 14 12 15 13
REMARK SMILES IDX 30 14 16 15 29 16 17 17 18 18 19 19 23 20 20 21 22 22 21 23
REMARK SMILES IDX 24 24 28 25 25 26 27 27 26 28 10 30 11 31
REMARK H PARENT 27 29 11 32
REMARK Flexibility Score: inf
ROOT
ATOM      1  C   UNL A   1       1.451  -0.211   4.152  1.00  0.00     0.111 A 
ATOM      2  N   UNL A   1       2.336   0.255   5.062  1.00  0.00    -0.221 NA
ATOM      3  C   UNL A   1       3.343   0.775   4.344  1.00  0.00     0.152 A 
ATOM      4  Cl  UNL A   1       4.764   1.511   5.062  1.00  0.00    -0.060 Cl
ATOM      5  C   UNL A   1       3.076   0.617   3.003  1.00  0.00     0.083 A 
ATOM      6  N   UNL A   1       1.877   0.004   2.868  1.00  0.00    -0.324 N 
ENDROOT
BRANCH   1   7
ATOM      7  C   UNL A   1       0.186  -0.923   4.571  1.00  0.00     0.075 C 
BRANCH   7   8
ATOM      8  C   UNL A   1      -1.075  -0.069   4.374  1.00  0.00     0.008 C 
BRANCH   8   9
ATOM      9  C   UNL A   1      -0.923   1.294   5.062  1.00  0.00    -0.003 C 
ATOM     10  C   UNL A   1      -0.659   2.398   4.045  1.00  0.00     0.004 C 
ENDBRANCH   8   9
ENDBRANCH   7   8
ENDBRANCH   1   7
BRANCH   6  11
ATOM     11  C   UNL A   1       1.297  -0.347   1.552  1.00  0.00     0.159 C 
BRANCH  11  12
ATOM     12  C   UNL A   1       0.269   0.611   1.009  1.00  0.00    -0.028 A 
ATOM     13  C   UNL A   1      -1.046   0.180   0.783  1.00  0.00     0.006 A 
ATOM     14  C   UNL A   1       0.600   1.951   0.772  1.00  0.00     0.006 A 
ATOM     15  C   UNL A   1      -2.005   1.067   0.289  1.00  0.00     0.009 A 
ATOM     16  C   UNL A   1      -0.358   2.837   0.273  1.00  0.00     0.009 A 
ATOM     17  C   UNL A   1      -1.672   2.408   0.001  1.00  0.00    -0.018 A 
BRANCH  17  18
ATOM     18  C   UNL A   1      -2.710   3.359  -0.514  1.00  0.00    -0.007 A 
ATOM     19  C   UNL A   1      -2.717   3.608  -1.906  1.00  0.00     0.009 A 
ATOM     20  C   UNL A   1      -3.710   3.995   0.297  1.00  0.00     0.031 A 
ATOM     21  C   UNL A   1      -3.683   4.419  -2.494  1.00  0.00     0.001 A 
ATOM     22  C   UNL A   1      -4.680   4.802  -0.336  1.00  0.00     0.013 A 
ATOM     23  C   UNL A   1      -4.667   5.007  -1.713  1.00  0.00     0.001 A 
BRANCH  20  24
ATOM     24  C   UNL A   1      -3.767   3.940   1.789  1.00  0.00     0.205 A 
ATOM     25  N   UNL A   1      -3.244   4.885   2.599  1.00  0.00    -0.134 NA
ATOM     26  N   UNL A   1      -4.251   2.919   2.526  1.00  0.00    -0.108 NA
ATOM     27  N   UNL A   1      -3.447   4.433   3.824  1.00  0.00    -0.177 N 
ATOM     28  N   UNL A   1      -4.048   3.257   3.788  1.00  0.00    -0.050 NA
ATOM     29  H   UNL A   1      -3.165   4.931   4.696  1.00  0.00     0.216 HD
ENDBRANCH  20  24
ENDBRANCH  17  18
ENDBRANCH  11  12
ENDBRANCH   6  11
BRANCH   5  30
ATOM     30  C   UNL A   1       3.969   1.056   1.871  1.00  0.00     0.213 C 
BRANCH  30  31
ATOM     31  O   UNL A   1       4.122   2.448   1.877  1.00  0.00    -0.390 OA
ATOM     32  H   UNL A   1       4.679   2.668   2.670  1.00  0.00     0.211 HD
ENDBRANCH  30  31
ENDBRANCH   5  30
TORSDOF 9
ENDMDL
MODEL 6
REMARK VINA RESULT:    -2.104      3.341      5.046
REMARK INTER + INTRA:          -5.527
REMARK INTER:                  -3.083
REMARK INTRA:                  -2.443
REMARK UNBOUND:                -2.377
REMARK SMILES CCCCc1nc(Cl)c(CO)n1Cc1ccc(-c2ccccc2-c2nn[nH]n2)cc1
REMARK SMILES IDX 5 1 6 2 7 3 8 4 9 5 12 6 4 7 3 8 2 9 1 10 13 11 14 12 15 13
REMARK SMILES IDX 30 14 16 15 29 16 17 17 18 18 19 19 23 20 20 21 22 22 21 23
REMARK SMILES IDX 24 24 28 25 25 26 27 27 26 28 10 30 11 31
REMARK H PARENT 27 29 11 32
REMARK Flexibility Score: inf
ROOT
ATOM      1  C   UNL A   1       0.012  -2.835   4.571  1.00  0.00     0.111 A 
ATOM      2  N   UNL A   1      -0.529  -3.998   4.142  1.00  0.00    -0.221 NA
ATOM      3  C   UNL A   1      -1.802  -3.705   3.836  1.00  0.00     0.152 A 
ATOM      4  Cl  UNL A   1      -2.949  -4.887   3.233  1.00  0.00    -0.060 Cl
ATOM      5  C   UNL A   1      -2.037  -2.371   4.086  1.00  0.00     0.083 A 
ATOM      6  N   UNL A   1      -0.893  -1.808   4.541  1.00  0.00    -0.324 N 
ENDROOT
BRANCH   1   7
ATOM      7  C   UNL A   1       1.439  -2.759   5.061  1.00  0.00     0.075 C 
BRANCH   7   8
ATOM      8  C   UNL A   1       2.419  -2.281   3.980  1.00  0.00     0.008 C 
BRANCH   8   9
ATOM      9  C   UNL A   1       3.200  -1.050   4.457  1.00  0.00    -0.003 C 
ATOM     10  C   UNL A   1       3.804  -0.291   3.280  1.00  0.00     0.004 C 
ENDBRANCH   8   9
ENDBRANCH   7   8
ENDBRANCH   1   7
BRANCH   6  11
ATOM     11  C   UNL A   1      -0.802  -0.384   4.937  1.00  0.00     0.159 C 
BRANCH  11  12
ATOM     12  C   UNL A   1      -0.077   0.521   3.975  1.00  0.00    -0.028 A 
ATOM     13  C   UNL A   1       0.556   1.682   4.440  1.00  0.00     0.006 A 
ATOM     14  C   UNL A   1       0.015   0.189   2.617  1.00  0.00     0.006 A 
ATOM     15  C   UNL A   1       1.238   2.519   3.553  1.00  0.00     0.009 A 
ATOM     16  C   UNL A   1       0.692   1.029   1.730  1.00  0.00     0.009 A 
ATOM     17  C   UNL A   1       1.297   2.220   2.176  1.00  0.00    -0.018 A 
BRANCH  17  18
ATOM     18  C   UNL A   1       2.043   3.115   1.232  1.00  0.00    -0.007 A 
ATOM     19  C   UNL A   1       3.354   3.488   1.605  1.00  0.00     0.009 A 
ATOM     20  C   UNL A   1       1.534   3.580  -0.028  1.00  0.00     0.031 A 
ATOM     21  C   UNL A   1       4.157   4.257   0.768  1.00  0.00     0.001 A 
ATOM     22  C   UNL A   1       2.381   4.349  -0.856  1.00  0.00     0.013 A 
ATOM     23  C   UNL A   1       3.675   4.679  -0.463  1.00  0.00     0.001 A 
BRANCH  20  24
ATOM     24  C   UNL A   1       0.135   3.384  -0.514  1.00  0.00     0.205 A 
ATOM     25  N   UNL A   1      -0.931   4.057  -0.032  1.00  0.00    -0.134 NA
ATOM     26  N   UNL A   1      -0.270   2.463  -1.412  1.00  0.00    -0.108 NA
ATOM     27  N   UNL A   1      -1.971   3.550  -0.672  1.00  0.00    -0.177 N 
ATOM     28  N   UNL A   1      -1.583   2.595  -1.498  1.00  0.00    -0.050 NA
ATOM     29  H   UNL A   1      -2.959   3.856  -0.537  1.00  0.00     0.216 HD
ENDBRANCH  20  24
ENDBRANCH  17  18
ENDBRANCH  11  12
ENDBRANCH   6  11
BRANCH   5  30
ATOM     30  C   UNL A   1      -3.348  -1.656   3.884  1.00  0.00     0.213 C 
BRANCH  30  31
ATOM     31  O   UNL A   1      -3.417  -1.111   2.596  1.00  0.00    -0.390 OA
ATOM     32  H   UNL A   1      -4.368  -0.871   2.441  1.00  0.00     0.211 HD
ENDBRANCH  30  31
ENDBRANCH   5  30
TORSDOF 9
ENDMDL
MODEL 7
REMARK VINA RESULT:    -2.032      3.751      5.093
REMARK INTER + INTRA:          -5.419
REMARK INTER:                  -3.011
REMARK INTRA:                  -2.408
REMARK UNBOUND:                -2.377
REMARK SMILES CCCCc1nc(Cl)c(CO)n1Cc1ccc(-c2ccccc2-c2nn[nH]n2)cc1
REMARK SMILES IDX 5 1 6 2 7 3 8 4 9 5 12 6 4 7 3 8 2 9 1 10 13 11 14 12 15 13
REMARK SMILES IDX 30 14 16 15 29 16 17 17 18 18 19 19 23 20 20 21 22 22 21 23
REMARK SMILES IDX 24 24 28 25 25 26 27 27 26 28 10 30 11 31
REMARK H PARENT 27 29 11 32
REMARK Flexibility Score: inf
ROOT
ATOM      1  C   UNL A   1       3.825   1.471   1.147  1.00  0.00     0.111 A 
ATOM      2  N   UNL A   1       4.285   2.676   0.743  1.00  0.00    -0.221 NA
ATOM      3  C   UNL A   1       3.734   2.879  -0.464  1.00  0.00     0.152 A 
ATOM      4  Cl  UNL A   1       4.023   4.313  -1.432  1.00  0.00    -0.060 Cl
ATOM      5  C   UNL A   1       2.951   1.796  -0.796  1.00  0.00     0.083 A 
ATOM      6  N   UNL A   1       2.991   0.903   0.221  1.00  0.00    -0.324 N 
ENDROOT
BRANCH   1   7
ATOM      7  C   UNL A   1       4.262   0.856   2.457  1.00  0.00     0.075 C 
BRANCH   7   8
ATOM      8  C   UNL A   1       3.786   1.654   3.680  1.00  0.00     0.008 C 
BRANCH   8   9
ATOM      9  C   UNL A   1       2.353   1.263   4.062  1.00  0.00    -0.003 C 
ATOM     10  C   UNL A   1       1.361   2.352   3.666  1.00  0.00     0.004 C 
ENDBRANCH   8   9
ENDBRANCH   7   8
ENDBRANCH   1   7
BRANCH   6  11
ATOM     11  C   UNL A   1       2.280  -0.394   0.179  1.00  0.00     0.159 C 
BRANCH  11  12
ATOM     12  C   UNL A   1       1.040  -0.492   1.028  1.00  0.00    -0.028 A 
ATOM     13  C   UNL A   1      -0.112   0.227   0.679  1.00  0.00     0.006 A 
ATOM     14  C   UNL A   1       1.005  -1.339   2.144  1.00  0.00     0.006 A 
ATOM     15  C   UNL A   1      -1.269   0.131   1.458  1.00  0.00     0.009 A 
ATOM     16  C   UNL A   1      -0.149  -1.430   2.926  1.00  0.00     0.009 A 
ATOM     17  C   UNL A   1      -1.300  -0.681   2.611  1.00  0.00    -0.018 A 
BRANCH  17  18
ATOM     18  C   UNL A   1      -2.548  -0.791   3.434  1.00  0.00    -0.007 A 
ATOM     19  C   UNL A   1      -3.171  -2.059   3.486  1.00  0.00     0.009 A 
ATOM     20  C   UNL A   1      -3.124   0.284   4.193  1.00  0.00     0.031 A 
ATOM     21  C   UNL A   1      -4.294  -2.285   4.276  1.00  0.00     0.001 A 
ATOM     22  C   UNL A   1      -4.257   0.015   4.992  1.00  0.00     0.013 A 
ATOM     23  C   UNL A   1      -4.831  -1.253   5.034  1.00  0.00     0.001 A 
BRANCH  20  24
ATOM     24  C   UNL A   1      -2.669   1.706   4.150  1.00  0.00     0.205 A 
ATOM     25  N   UNL A   1      -1.844   2.261   5.062  1.00  0.00    -0.134 NA
ATOM     26  N   UNL A   1      -3.081   2.643   3.272  1.00  0.00    -0.108 NA
ATOM     27  N   UNL A   1      -1.744   3.529   4.704  1.00  0.00    -0.177 N 
ATOM     28  N   UNL A   1      -2.482   3.765   3.634  1.00  0.00    -0.050 NA
ATOM     29  H   UNL A   1      -1.169   4.244   5.201  1.00  0.00     0.216 HD
ENDBRANCH  20  24
ENDBRANCH  17  18
ENDBRANCH  11  12
ENDBRANCH   6  11
BRANCH   5  30
ATOM     30  C   UNL A   1       2.174   1.633  -2.077  1.00  0.00     0.213 C 
BRANCH  30  31
ATOM     31  O   UNL A   1       0.962   2.332  -2.010  1.00  0.00    -0.390 OA
ATOM     32  H   UNL A   1       0.584   2.333  -2.928  1.00  0.00     0.211 HD
ENDBRANCH  30  31
ENDBRANCH   5  30
TORSDOF 9
ENDMDL
MODEL 8
REMARK VINA RESULT:    -2.030      3.353      6.469
REMARK INTER + INTRA:          -5.416
REMARK INTER:                  -2.937
REMARK INTRA:                  -2.479
REMARK UNBOUND:                -2.377
REMARK SMILES CCCCc1nc(Cl)c(CO)n1Cc1ccc(-c2ccccc2-c2nn[nH]n2)cc1
REMARK SMILES IDX 5 1 6 2 7 3 8 4 9 5 12 6 4 7 3 8 2 9 1 10 13 11 14 12 15 13
REMARK SMILES IDX 30 14 16 15 29 16 17 17 18 18 19 19 23 20 20 21 22 22 21 23
REMARK SMILES IDX 24 24 28 25 25 26 27 27 26 28 10 30 11 31
REMARK H PARENT 27 29 11 32
REMARK Flexibility Score: inf
ROOT
ATOM      1  C   UNL A   1      -0.945  -0.199   4.678  1.00  0.00     0.111 A 
ATOM      2  N   UNL A   1      -2.295  -0.255   4.636  1.00  0.00    -0.221 NA
ATOM      3  C   UNL A   1      -2.585  -1.496   4.215  1.00  0.00     0.152 A 
ATOM      4  Cl  UNL A   1      -4.222  -2.081   3.984  1.00  0.00    -0.060 Cl
ATOM      5  C   UNL A   1      -1.415  -2.188   3.993  1.00  0.00     0.083 A 
ATOM      6  N   UNL A   1      -0.370  -1.380   4.293  1.00  0.00    -0.324 N 
ENDROOT
BRANCH   1   7
ATOM      7  C   UNL A   1      -0.218   1.069   5.062  1.00  0.00     0.075 C 
BRANCH   7   8
ATOM      8  C   UNL A   1       0.144   1.943   3.852  1.00  0.00     0.008 C 
BRANCH   8   9
ATOM      9  C   UNL A   1       1.638   2.288   3.856  1.00  0.00    -0.003 C 
ATOM     10  C   UNL A   1       2.356   1.613   5.019  1.00  0.00     0.004 C 
ENDBRANCH   8   9
ENDBRANCH   7   8
ENDBRANCH   1   7
BRANCH   6  11
ATOM     11  C   UNL A   1       1.040  -1.802   4.137  1.00  0.00     0.159 C 
BRANCH  11  12
ATOM     12  C   UNL A   1       1.746  -1.294   2.907  1.00  0.00    -0.028 A 
ATOM     13  C   UNL A   1       1.012  -0.949   1.763  1.00  0.00     0.006 A 
ATOM     14  C   UNL A   1       3.135  -1.112   2.907  1.00  0.00     0.006 A 
ATOM     15  C   UNL A   1       1.661  -0.468   0.624  1.00  0.00     0.009 A 
ATOM     16  C   UNL A   1       3.785  -0.635   1.766  1.00  0.00     0.009 A 
ATOM     17  C   UNL A   1       3.065  -0.326   0.596  1.00  0.00    -0.018 A 
BRANCH  17  18
ATOM     18  C   UNL A   1       3.754   0.206  -0.624  1.00  0.00    -0.007 A 
ATOM     19  C   UNL A   1       4.449  -0.728  -1.426  1.00  0.00     0.009 A 
ATOM     20  C   UNL A   1       3.722   1.578  -1.049  1.00  0.00     0.031 A 
ATOM     21  C   UNL A   1       5.062  -0.350  -2.616  1.00  0.00     0.001 A 
ATOM     22  C   UNL A   1       4.346   1.923  -2.268  1.00  0.00     0.013 A 
ATOM     23  C   UNL A   1       5.004   0.970  -3.040  1.00  0.00     0.001 A 
BRANCH  20  24
ATOM     24  C   UNL A   1       3.144   2.707  -0.260  1.00  0.00     0.205 A 
ATOM     25  N   UNL A   1       3.798   3.347   0.732  1.00  0.00    -0.134 NA
ATOM     26  N   UNL A   1       1.882   3.175  -0.354  1.00  0.00    -0.108 NA
ATOM     27  N   UNL A   1       2.927   4.220   1.207  1.00  0.00    -0.177 N 
ATOM     28  N   UNL A   1       1.779   4.123   0.562  1.00  0.00    -0.050 NA
ATOM     29  H   UNL A   1       3.119   4.887   1.986  1.00  0.00     0.216 HD
ENDBRANCH  20  24
ENDBRANCH  17  18
ENDBRANCH  11  12
ENDBRANCH   6  11
BRANCH   5  30
ATOM     30  C   UNL A   1      -1.314  -3.608   3.501  1.00  0.00     0.213 C 
BRANCH  30  31
ATOM     31  O   UNL A   1      -1.263  -3.641   2.101  1.00  0.00    -0.390 OA
ATOM     32  H   UNL A   1      -1.690  -2.803   1.783  1.00  0.00     0.211 HD
ENDBRANCH  30  31
ENDBRANCH   5  30
TORSDOF 9
ENDMDL
MODEL 9
REMARK VINA RESULT:    -0.021      3.374      4.393
REMARK INTER + INTRA:          -2.409
REMARK INTER:                  -0.196
REMARK INTRA:                  -2.213
REMARK UNBOUND:                -2.377
REMARK SMILES CCCCc1nc(Cl)c(CO)n1Cc1ccc(-c2ccccc2-c2nn[nH]n2)cc1
REMARK SMILES IDX 5 1 6 2 7 3 8 4 9 5 12 6 4 7 3 8 2 9 1 10 13 11 14 12 15 13
REMARK SMILES IDX 30 14 16 15 29 16 17 17 18 18 19 19 23 20 20 21 22 22 21 23
REMARK SMILES IDX 24 24 28 25 25 26 27 27 26 28 10 30 11 31
REMARK H PARENT 27 29 11 32
REMARK Flexibility Score: inf
ROOT
ATOM      1  C   UNL A   1       4.033   1.036   0.547  1.00  0.00     0.111 A 
ATOM      2  N   UNL A   1       4.291   1.327  -0.748  1.00  0.00    -0.221 NA
ATOM      3  C   UNL A   1       4.264   2.667  -0.822  1.00  0.00     0.152 A 
ATOM      4  Cl  UNL A   1       4.535   3.560  -2.307  1.00  0.00    -0.060 Cl
ATOM      5  C   UNL A   1       3.980   3.187   0.421  1.00  0.00     0.083 A 
ATOM      6  N   UNL A   1       3.843   2.164   1.298  1.00  0.00    -0.324 N 
ENDROOT
BRANCH   1   7
ATOM      7  C   UNL A   1       3.927  -0.392   1.030  1.00  0.00     0.075 C 
BRANCH   7   8
ATOM      8  C   UNL A   1       2.476  -0.883   1.134  1.00  0.00     0.008 C 
BRANCH   8   9
ATOM      9  C   UNL A   1       2.363  -2.041   2.133  1.00  0.00    -0.003 C 
ATOM     10  C   UNL A   1       2.751  -1.596   3.539  1.00  0.00     0.004 C 
ENDBRANCH   8   9
ENDBRANCH   7   8
ENDBRANCH   1   7
BRANCH   6  11
ATOM     11  C   UNL A   1       3.504   2.370   2.724  1.00  0.00     0.159 C 
BRANCH  11  12
ATOM     12  C   UNL A   1       2.062   2.146   3.097  1.00  0.00    -0.028 A 
ATOM     13  C   UNL A   1       1.056   2.267   2.127  1.00  0.00     0.006 A 
ATOM     14  C   UNL A   1       1.713   1.766   4.399  1.00  0.00     0.006 A 
ATOM     15  C   UNL A   1      -0.282   2.050   2.465  1.00  0.00     0.009 A 
ATOM     16  C   UNL A   1       0.375   1.554   4.739  1.00  0.00     0.009 A 
ATOM     17  C   UNL A   1      -0.650   1.714   3.786  1.00  0.00    -0.018 A 
BRANCH  17  18
ATOM     18  C   UNL A   1      -2.086   1.467   4.138  1.00  0.00    -0.007 A 
ATOM     19  C   UNL A   1      -2.784   2.528   4.759  1.00  0.00     0.009 A 
ATOM     20  C   UNL A   1      -2.800   0.253   3.856  1.00  0.00     0.031 A 
ATOM     21  C   UNL A   1      -4.139   2.427   5.063  1.00  0.00     0.001 A 
ATOM     22  C   UNL A   1      -4.176   0.191   4.168  1.00  0.00     0.013 A 
ATOM     23  C   UNL A   1      -4.835   1.265   4.760  1.00  0.00     0.001 A 
BRANCH  20  24
ATOM     24  C   UNL A   1      -2.186  -1.000   3.323  1.00  0.00     0.205 A 
ATOM     25  N   UNL A   1      -2.559  -1.591   2.168  1.00  0.00    -0.134 NA
ATOM     26  N   UNL A   1      -1.261  -1.757   3.949  1.00  0.00    -0.108 NA
ATOM     27  N   UNL A   1      -1.829  -2.690   2.097  1.00  0.00    -0.177 N 
ATOM     28  N   UNL A   1      -1.050  -2.796   3.158  1.00  0.00    -0.050 NA
ATOM     29  H   UNL A   1      -1.867  -3.379   1.314  1.00  0.00     0.216 HD
ENDBRANCH  20  24
ENDBRANCH  17  18
ENDBRANCH  11  12
ENDBRANCH   6  11
BRANCH   5  30
ATOM     30  C   UNL A   1       3.848   4.651   0.752  1.00  0.00     0.213 C 
BRANCH  30  31
ATOM     31  O   UNL A   1       2.513   5.062   0.641  1.00  0.00    -0.390 OA
ATOM     32  H   UNL A   1       2.441   5.924   1.127  1.00  0.00     0.211 HD
ENDBRANCH  30  31
ENDBRANCH   5  30
TORSDOF 9
ENDMDL
